electric-grid/physical/synthetic/texas7k/model/Texas7k_20210309.raw
 0,    100.00, 33, 0, 0, 60.00       / March 11, 2021 07:21:37; Simulator Version 22 Beta; BuildDate 2021_3_1
This is a synthetic electric grid designed by researchers at Texas A&M University, created for use in the ARPA-E PERFORM 
program
110001,'EDNA 1 1    ', 138.0000,1,   7,   1,   1,1.03709257,  -4.242394, 1.10000, 0.90000, 1.10000, 0.90000
110002,'EDNA 1 2    ',  13.8000,1,   7,   1,   1,1.03709257,  -4.242394, 1.10000, 0.90000, 1.10000, 0.90000
110003,'EDNA 1 3    ',  13.8000,1,   7,   1,   1,1.03709257,  -4.242394, 1.10000, 0.90000, 1.10000, 0.90000
110004,'EDNA 1 4    ',   1.0000,1,   7,   1,   1,1.03709257,  -4.242394, 1.10000, 0.90000, 1.10000, 0.90000
110005,'LANE CITY ~1', 138.0000,1,   7,   1,   1,1.02185512, -11.384533, 1.10000, 0.90000, 1.10000, 0.90000
110006,'LANE CITY ~2',  13.8000,1,   7,   1,   1,1.02185512, -11.384533, 1.10000, 0.90000, 1.10000, 0.90000
110007,'LANE CITY ~3',  13.8000,1,   7,   1,   1,1.02185512, -11.384533, 1.10000, 0.90000, 1.10000, 0.90000
110008,'LANE CITY ~4',   1.0000,1,   7,   1,   1,1.02185512, -11.384533, 1.10000, 0.90000, 1.10000, 0.90000
110009,'MATAGORDA ~1', 138.0000,1,   7,   1,   1,1.02860105,  -3.558826, 1.10000, 0.90000, 1.10000, 0.90000
110010,'MATAGORDA ~2',  13.8000,1,   7,   1,   1,1.02860105,  -3.558826, 1.10000, 0.90000, 1.10000, 0.90000
110011,'MATAGORDA ~3',  13.8000,1,   7,   1,   1,1.02860105,  -3.558826, 1.10000, 0.90000, 1.10000, 0.90000
110012,'MATAGORDA ~4',   1.0000,1,   7,   1,   1,1.02860105,  -3.558826, 1.10000, 0.90000, 1.10000, 0.90000
110013,'HUNGERFORD~1', 138.0000,1,   7,   1,   1,1.01155698, -12.681401, 1.10000, 0.90000, 1.10000, 0.90000
110014,'HUNGERFORD~2',  13.8000,1,   7,   1,   1,1.01155698, -12.681401, 1.10000, 0.90000, 1.10000, 0.90000
110015,'HUNGERFORD~3',  13.8000,1,   7,   1,   1,1.01155698, -12.681401, 1.10000, 0.90000, 1.10000, 0.90000
110016,'HUNGERFORD~4',   1.0000,1,   7,   1,   1,1.01155698, -12.681401, 1.10000, 0.90000, 1.10000, 0.90000
110017,'EAST BERNA~1', 138.0000,1,   7,   1,   1,1.02644324, -16.738405, 1.10000, 0.90000, 1.10000, 0.90000
110018,'EAST BERNA~2',  13.8000,1,   7,   1,   1,1.02644324, -16.738405, 1.10000, 0.90000, 1.10000, 0.90000
110019,'EAST BERNA~3',  13.8000,1,   7,   1,   1,1.02644324, -16.738405, 1.10000, 0.90000, 1.10000, 0.90000
110020,'EAST BERNA~4',   1.0000,1,   7,   1,   1,1.02644324, -16.738405, 1.10000, 0.90000, 1.10000, 0.90000
110021,'EL CAMPO 1 1', 138.0000,1,   7,   1,   1,1.02517498,  -6.828780, 1.10000, 0.90000, 1.10000, 0.90000
110022,'EL CAMPO 1 2',  22.0000,1,   7,   1,   1,1.02517498,  -6.828780, 1.10000, 0.90000, 1.10000, 0.90000
110023,'EL CAMPO 1 3',  22.0000,1,   7,   1,   1,1.02517498,  -6.828780, 1.10000, 0.90000, 1.10000, 0.90000
110024,'EL CAMPO 1 4',   1.0000,1,   7,   1,   1,1.02517498,  -6.828780, 1.10000, 0.90000, 1.10000, 0.90000
110025,'EL CAMPO 2 1', 138.0000,1,   7,   1,   1,1.02607453,  -6.831657, 1.10000, 0.90000, 1.10000, 0.90000
110026,'EL CAMPO 2 2',  13.8000,1,   7,   1,   1,1.02607453,  -6.831657, 1.10000, 0.90000, 1.10000, 0.90000
110027,'EL CAMPO 2 3',  13.8000,1,   7,   1,   1,1.02607453,  -6.831657, 1.10000, 0.90000, 1.10000, 0.90000
110028,'EL CAMPO 2 4',   1.0000,1,   7,   1,   1,1.02607453,  -6.831657, 1.10000, 0.90000, 1.10000, 0.90000
110029,'WHARTON 1 1 ', 138.0000,1,   7,   1,   1,1.02791679,  -8.722837, 1.10000, 0.90000, 1.10000, 0.90000
110030,'WHARTON 1 2 ',  13.8000,1,   7,   1,   1,1.02791679,  -8.722837, 1.10000, 0.90000, 1.10000, 0.90000
110031,'WHARTON 1 3 ',  13.8000,1,   7,   1,   1,1.02791679,  -8.722837, 1.10000, 0.90000, 1.10000, 0.90000
110032,'WHARTON 1 4 ',   1.0000,1,   7,   1,   1,1.02791679,  -8.722837, 1.10000, 0.90000, 1.10000, 0.90000
110033,'CEDAR LANE~1', 138.0000,1,   7,   1,   1,1.01648450, -10.439684, 1.10000, 0.90000, 1.10000, 0.90000
110034,'CEDAR LANE~2',  13.8000,1,   7,   1,   1,1.01648450, -10.439684, 1.10000, 0.90000, 1.10000, 0.90000
110035,'CEDAR LANE~3',  13.8000,1,   7,   1,   1,1.01648450, -10.439684, 1.10000, 0.90000, 1.10000, 0.90000
110036,'CEDAR LANE~4',   1.0000,1,   7,   1,   1,1.01648450, -10.439684, 1.10000, 0.90000, 1.10000, 0.90000
110037,'NADA 1 1    ', 138.0000,1,   7,   1,   1,1.03246498,  -7.927104, 1.10000, 0.90000, 1.10000, 0.90000
110038,'NADA 1 2    ',  13.8000,1,   7,   1,   1,1.03246498,  -7.927104, 1.10000, 0.90000, 1.10000, 0.90000
110039,'NADA 1 3    ',  13.8000,1,   7,   1,   1,1.03246498,  -7.927104, 1.10000, 0.90000, 1.10000, 0.90000
110040,'NADA 1 4    ',   1.0000,1,   7,   1,   1,1.03246498,  -7.927104, 1.10000, 0.90000, 1.10000, 0.90000
110041,'EGYPT 1 1   ', 138.0000,1,   7,   1,   1,1.03060114,  -5.898393, 1.10000, 0.90000, 1.10000, 0.90000
110042,'EGYPT 1 2   ',  24.0000,1,   7,   1,   1,1.03060114,  -5.898393, 1.10000, 0.90000, 1.10000, 0.90000
110043,'EGYPT 1 3   ',  24.0000,1,   7,   1,   1,1.03060114,  -5.898393, 1.10000, 0.90000, 1.10000, 0.90000
110044,'EGYPT 1 4   ',   1.0000,1,   7,   1,   1,1.03060114,  -5.898393, 1.10000, 0.90000, 1.10000, 0.90000
110045,'LOUISE 1 1  ', 138.0000,1,   7,   1,   1,1.02872980,  -8.189099, 1.10000, 0.90000, 1.10000, 0.90000
110046,'LOUISE 1 2  ',  13.8000,1,   7,   1,   1,1.02872980,  -8.189099, 1.10000, 0.90000, 1.10000, 0.90000
110047,'LOUISE 1 3  ',  13.8000,1,   7,   1,   1,1.02872980,  -8.189099, 1.10000, 0.90000, 1.10000, 0.90000
110048,'LOUISE 1 4  ',   1.0000,1,   7,   1,   1,1.02872980,  -8.189099, 1.10000, 0.90000, 1.10000, 0.90000
110049,'GANADO 1 1  ', 138.0000,1,   7,   1,   1,1.02467930,  -5.885151, 1.10000, 0.90000, 1.10000, 0.90000
110050,'GANADO 1 2  ',  18.0000,1,   7,   1,   1,1.02467930,  -5.885151, 1.10000, 0.90000, 1.10000, 0.90000
110051,'GANADO 1 3  ',  18.0000,1,   7,   1,   1,1.02467930,  -5.885151, 1.10000, 0.90000, 1.10000, 0.90000
110052,'GANADO 1 4  ',   1.0000,1,   7,   1,   1,1.02467930,  -5.885151, 1.10000, 0.90000, 1.10000, 0.90000
110053,'LOUISE 2 1  ', 138.0000,1,   7,   1,   1,1.02613592,  -6.415464, 1.10000, 0.90000, 1.10000, 0.90000
110054,'LOUISE 2 2  ',  13.8000,1,   7,   1,   1,1.02613592,  -6.415464, 1.10000, 0.90000, 1.10000, 0.90000
110055,'LOUISE 2 3  ',  13.8000,1,   7,   1,   1,1.02613592,  -6.415464, 1.10000, 0.90000, 1.10000, 0.90000
110056,'LOUISE 2 4  ',   1.0000,1,   7,   1,   1,1.02613592,  -6.415464, 1.10000, 0.90000, 1.10000, 0.90000
110057,'LOUISE 3 1  ', 138.0000,1,   7,   1,   1,1.02738690,  -7.223057, 1.10000, 0.90000, 1.10000, 0.90000
110058,'LOUISE 3 2  ',  24.0000,1,   7,   1,   1,1.02738690,  -7.223057, 1.10000, 0.90000, 1.10000, 0.90000
110059,'LOUISE 3 3  ',  24.0000,1,   7,   1,   1,1.02738690,  -7.223057, 1.10000, 0.90000, 1.10000, 0.90000
110060,'LOUISE 3 4  ',   1.0000,1,   7,   1,   1,1.02738690,  -7.223057, 1.10000, 0.90000, 1.10000, 0.90000
110061,'NADA 2 1    ', 138.0000,1,   7,   1,   1,1.02771294,  -6.530545, 1.10000, 0.90000, 1.10000, 0.90000
110062,'NADA 2 2    ',  18.0000,1,   7,   1,   1,1.02771294,  -6.530545, 1.10000, 0.90000, 1.10000, 0.90000
110063,'NADA 2 3    ',  18.0000,1,   7,   1,   1,1.02771294,  -6.530545, 1.10000, 0.90000, 1.10000, 0.90000
110064,'NADA 2 4    ',   1.0000,1,   7,   1,   1,1.02771294,  -6.530545, 1.10000, 0.90000, 1.10000, 0.90000
110065,'KENDLETON ~1', 138.0000,1,   7,   1,   1,1.02309036, -12.108721, 1.10000, 0.90000, 1.10000, 0.90000
110066,'KENDLETON ~2',  24.0000,1,   7,   1,   1,1.02309036, -12.108721, 1.10000, 0.90000, 1.10000, 0.90000
110067,'KENDLETON ~3',  24.0000,1,   7,   1,   1,1.02309036, -12.108721, 1.10000, 0.90000, 1.10000, 0.90000
110068,'KENDLETON ~4',   1.0000,1,   7,   1,   1,1.02309036, -12.108721, 1.10000, 0.90000, 1.10000, 0.90000
110069,'PLEDGER 1 1 ', 138.0000,1,   7,   1,   1,1.02180600,  -9.693303, 1.10000, 0.90000, 1.10000, 0.90000
110070,'PLEDGER 1 2 ',  13.8000,1,   7,   1,   1,1.02180600,  -9.693303, 1.10000, 0.90000, 1.10000, 0.90000
110071,'PLEDGER 1 3 ',  13.8000,1,   7,   1,   1,1.02180600,  -9.693303, 1.10000, 0.90000, 1.10000, 0.90000
110072,'PLEDGER 1 4 ',   1.0000,1,   7,   1,   1,1.02180600,  -9.693303, 1.10000, 0.90000, 1.10000, 0.90000
110073,'DANEVANG 1 1', 138.0000,1,   7,   1,   1,1.02559710,  -7.171018, 1.10000, 0.90000, 1.10000, 0.90000
110074,'DANEVANG 1 2',  13.8000,1,   7,   1,   1,1.02559710,  -7.171018, 1.10000, 0.90000, 1.10000, 0.90000
110075,'DANEVANG 1 3',  13.8000,1,   7,   1,   1,1.02559710,  -7.171018, 1.10000, 0.90000, 1.10000, 0.90000
110076,'DANEVANG 1 4',   1.0000,1,   7,   1,   1,1.02559710,  -7.171018, 1.10000, 0.90000, 1.10000, 0.90000
110077,'DANEVANG 2 1', 138.0000,1,   7,   1,   1,1.02176428,  -8.017345, 1.10000, 0.90000, 1.10000, 0.90000
110078,'DANEVANG 2 2',  18.0000,1,   7,   1,   1,1.02176428,  -8.017345, 1.10000, 0.90000, 1.10000, 0.90000
110079,'DANEVANG 2 3',  18.0000,1,   7,   1,   1,1.02176428,  -8.017345, 1.10000, 0.90000, 1.10000, 0.90000
110080,'DANEVANG 2 4',   1.0000,1,   7,   1,   1,1.02176428,  -8.017345, 1.10000, 0.90000, 1.10000, 0.90000
110081,'ELMATON 1 1 ', 138.0000,1,   7,   1,   1,1.01461339,  -4.139481, 1.10000, 0.90000, 1.10000, 0.90000
110082,'ELMATON 1 2 ',  24.0000,1,   7,   1,   1,1.01461339,  -4.139481, 1.10000, 0.90000, 1.10000, 0.90000
110083,'ELMATON 1 3 ',  24.0000,1,   7,   1,   1,1.01461339,  -4.139481, 1.10000, 0.90000, 1.10000, 0.90000
110084,'ELMATON 1 4 ',   1.0000,1,   7,   1,   1,1.01461339,  -4.139481, 1.10000, 0.90000, 1.10000, 0.90000
110085,'BAY CITY 1 1', 138.0000,1,   7,   1,   1,1.02838576,  -9.319996, 1.10000, 0.90000, 1.10000, 0.90000
110086,'BAY CITY 1 2',  18.0000,1,   7,   1,   1,1.02838576,  -9.319996, 1.10000, 0.90000, 1.10000, 0.90000
110087,'BAY CITY 1 3',  18.0000,1,   7,   1,   1,1.02838576,  -9.319996, 1.10000, 0.90000, 1.10000, 0.90000
110088,'BAY CITY 1 4',   1.0000,1,   7,   1,   1,1.02838576,  -9.319996, 1.10000, 0.90000, 1.10000, 0.90000
110089,'PALACIOS 1 1', 138.0000,1,   7,   1,   1,1.02393556,  -2.364095, 1.10000, 0.90000, 1.10000, 0.90000
110090,'PALACIOS 1 2',  18.0000,1,   7,   1,   1,1.02393556,  -2.364095, 1.10000, 0.90000, 1.10000, 0.90000
110091,'PALACIOS 1 3',  18.0000,1,   7,   1,   1,1.02393556,  -2.364095, 1.10000, 0.90000, 1.10000, 0.90000
110092,'PALACIOS 1 4',   1.0000,1,   7,   1,   1,1.02393556,  -2.364095, 1.10000, 0.90000, 1.10000, 0.90000
110093,'MIDFIELD 1 1', 138.0000,1,   7,   1,   1,1.00953507,  -3.536299, 1.10000, 0.90000, 1.10000, 0.90000
110094,'MIDFIELD 1 2',  13.8000,1,   7,   1,   1,0.96505755,  -6.973773, 1.10000, 0.90000, 1.10000, 0.90000
110095,'MIDFIELD 1 3',  13.8000,1,   7,   1,   1,0.96505755,  -6.973773, 1.10000, 0.90000, 1.10000, 0.90000
110096,'MIDFIELD 1 4',   1.0000,1,   7,   1,   1,0.96505755,  -6.973773, 1.10000, 0.90000, 1.10000, 0.90000
110097,'ELMATON 2 1 ', 138.0000,1,   7,   1,   1,1.01812994,  -4.531549, 1.10000, 0.90000, 1.10000, 0.90000
110098,'ELMATON 2 2 ',  13.8000,1,   7,   1,   1,1.01812994,  -4.531549, 1.10000, 0.90000, 1.10000, 0.90000
110099,'ELMATON 2 3 ',  13.8000,1,   7,   1,   1,1.01812994,  -4.531549, 1.10000, 0.90000, 1.10000, 0.90000
110100,'ELMATON 2 4 ',   1.0000,1,   7,   1,   1,1.01812994,  -4.531549, 1.10000, 0.90000, 1.10000, 0.90000
110101,'PALACIOS 2 1', 138.0000,1,   7,   1,   1,1.03372312,  -1.639254, 1.10000, 0.90000, 1.10000, 0.90000
110102,'PALACIOS 2 2',  13.8000,1,   7,   1,   1,1.03372312,  -1.639254, 1.10000, 0.90000, 1.10000, 0.90000
110103,'PALACIOS 2 3',  13.8000,1,   7,   1,   1,1.03372312,  -1.639254, 1.10000, 0.90000, 1.10000, 0.90000
110104,'PALACIOS 2 4',   1.0000,1,   7,   1,   1,1.03372312,  -1.639254, 1.10000, 0.90000, 1.10000, 0.90000
110105,'MATAGORDA ~5', 138.0000,1,   7,   1,   1,1.02797258,  -3.325632, 1.10000, 0.90000, 1.10000, 0.90000
110106,'MATAGORDA ~6',  18.0000,1,   7,   1,   1,1.02797258,  -3.325632, 1.10000, 0.90000, 1.10000, 0.90000
110107,'MATAGORDA ~7',  18.0000,1,   7,   1,   1,1.02797258,  -3.325632, 1.10000, 0.90000, 1.10000, 0.90000
110108,'MATAGORDA ~8',   1.0000,1,   7,   1,   1,1.02797258,  -3.325632, 1.10000, 0.90000, 1.10000, 0.90000
110109,'SWEENY 1 1  ', 138.0000,1,   7,   1,   1,1.03567529, -10.632944, 1.10000, 0.90000, 1.10000, 0.90000
110110,'SWEENY 1 2  ',  13.8000,1,   7,   1,   1,1.03567529, -10.632944, 1.10000, 0.90000, 1.10000, 0.90000
110111,'SWEENY 1 3  ',  13.8000,1,   7,   1,   1,1.03567529, -10.632944, 1.10000, 0.90000, 1.10000, 0.90000
110112,'SWEENY 1 4  ',   1.0000,1,   7,   1,   1,1.03567529, -10.632944, 1.10000, 0.90000, 1.10000, 0.90000
110113,'EDNA 2 1    ', 138.0000,1,   7,   1,   1,1.03619814,  -3.692650, 1.10000, 0.90000, 1.10000, 0.90000
110114,'EDNA 2 2    ',  18.0000,1,   7,   1,   1,1.03619814,  -3.692650, 1.10000, 0.90000, 1.10000, 0.90000
110115,'EDNA 2 3    ',  18.0000,1,   7,   1,   1,1.03619814,  -3.692650, 1.10000, 0.90000, 1.10000, 0.90000
110116,'EDNA 2 4    ',   1.0000,1,   7,   1,   1,1.03619814,  -3.692650, 1.10000, 0.90000, 1.10000, 0.90000
110117,'MARKHAM 1 1 ', 138.0000,1,   7,   1,   1,1.01379228,  -4.654491, 1.10000, 0.90000, 1.10000, 0.90000
110118,'ALTAIR 1 1  ', 138.0000,1,   7,   1,   1,1.02813983,  -8.976583, 1.10000, 0.90000, 1.10000, 0.90000
110119,'CEDAR LANE~5', 138.0000,1,   7,   1,   1,1.01639748,  -8.704420, 1.10000, 0.90000, 1.10000, 0.90000
110120,'BAY CITY 2 1', 138.0000,1,   7,   1,   1,1.02475464,  -5.868602, 1.10000, 0.90000, 1.10000, 0.90000
110121,'WADSWORTH ~1', 138.0000,1,   7,   1,   1,1.02213526,  -6.308827, 1.10000, 0.90000, 1.10000, 0.90000
110122,'LA WARD 1 1 ', 138.0000,1,   7,   1,   1,1.02421463,  -0.746418, 1.10000, 0.90000, 1.10000, 0.90000
110123,'HUNGERFORD~5', 138.0000,1,   7,   1,   1,1.00615132, -13.423177, 1.10000, 0.90000, 1.10000, 0.90000
110124,'GARWOOD 1 1 ', 138.0000,1,   7,   1,   1,1.03780973,  -7.943878, 1.10000, 0.90000, 1.10000, 0.90000
110125,'LANE CITY ~5', 138.0000,1,   7,   1,   1,1.02252424,  -9.856427, 1.10000, 0.90000, 1.10000, 0.90000
110126,'BAY CITY 3 1', 345.0000,1,   7,   1,   1,1.03529930,  -2.444048, 1.10000, 0.90000, 1.10000, 0.90000
110127,'BAY CITY 3 2', 138.0000,1,   7,   1,   1,1.02695394,  -5.369169, 1.10000, 0.90000, 1.10000, 0.90000
110128,'EL CAMPO 3 1', 138.0000,1,   7,   1,   1,1.02445042,  -7.196909, 1.10000, 0.90000, 1.10000, 0.90000
110129,'BROOKSHIRE~1', 138.0000,1,   7,   1,   1,1.03047848, -19.011627, 1.10000, 0.90000, 1.10000, 0.90000
110130,'EAGLE LAKE~1', 138.0000,1,   7,   1,   1,1.02278841, -10.747621, 1.10000, 0.90000, 1.10000, 0.90000
110131,'SEALY 1 1   ', 138.0000,1,   7,   1,   1,1.03520429, -16.164100, 1.10000, 0.90000, 1.10000, 0.90000
110132,'WHARTON 2 1 ', 138.0000,1,   7,   1,   1,1.02083981, -11.418891, 1.10000, 0.90000, 1.10000, 0.90000
110133,'GANADO 2 1  ', 138.0000,1,   7,   1,   1,1.02421856,  -4.916247, 1.10000, 0.90000, 1.10000, 0.90000
110134,'EL CAMPO 4 1', 138.0000,1,   7,   1,   1,1.02482843,  -7.077261, 1.10000, 0.90000, 1.10000, 0.90000
110135,'MARKHAM 2 1 ', 138.0000,1,   7,   1,   1,1.01994109,  -7.775494, 1.10000, 0.90000, 1.10000, 0.90000
110136,'PALACIOS 3 1', 138.0000,1,   7,   1,   1,1.02464545,  -1.200824, 1.10000, 0.90000, 1.10000, 0.90000
110137,'PATTISON 1 1', 138.0000,1,   7,   1,   1,1.02883017, -16.894874, 1.10000, 0.90000, 1.10000, 0.90000
110138,'BAY CITY 4 1', 138.0000,1,   7,   1,   1,1.01908755,  -7.207088, 1.10000, 0.90000, 1.10000, 0.90000
110139,'EDNA 3 1    ', 138.0000,1,   7,   1,   1,1.03553760,  -3.234422, 1.10000, 0.90000, 1.10000, 0.90000
110140,'BROOKSHIRE~2', 138.0000,1,   7,   1,   1,1.02963793, -17.492167, 1.10000, 0.90000, 1.10000, 0.90000
110141,'SAN FELIPE~1', 138.0000,1,   7,   1,   1,1.03423536, -17.613456, 1.10000, 0.90000, 1.10000, 0.90000
110142,'BROOKSHIRE~3', 138.0000,1,   7,   1,   1,1.02357149, -18.774773, 1.10000, 0.90000, 1.10000, 0.90000
110143,'SEALY 2 1   ', 138.0000,1,   7,   1,   1,1.03392279, -17.572352, 1.10000, 0.90000, 1.10000, 0.90000
110144,'SAN FELIPE~2', 138.0000,1,   7,   1,   1,1.03610349, -18.465273, 1.10000, 0.90000, 1.10000, 0.90000
110145,'PRAIRIE VI~1', 138.0000,1,   7,   1,   1,1.01837373, -14.335278, 1.10000, 0.90000, 1.10000, 0.90000
110146,'LISSIE 1 1  ', 138.0000,1,   7,   1,   1,1.02406907, -14.106963, 1.10000, 0.90000, 1.10000, 0.90000
110147,'BROOKSHIRE~4', 138.0000,1,   7,   1,   1,1.02636516, -19.336737, 1.10000, 0.90000, 1.10000, 0.90000
110148,'BROOKSHIRE~5', 138.0000,1,   7,   1,   1,1.02735579, -17.322596, 1.10000, 0.90000, 1.10000, 0.90000
110149,'BROOKSHIRE~6', 138.0000,1,   7,   1,   1,1.03210187, -17.595790, 1.10000, 0.90000, 1.10000, 0.90000
110150,'HOCKLEY 1 1 ', 138.0000,1,   7,   1,   1,1.03072619, -18.853149, 1.10000, 0.90000, 1.10000, 0.90000
110151,'EAGLE LAKE~2', 138.0000,1,   7,   1,   1,1.02110076, -11.130863, 1.10000, 0.90000, 1.10000, 0.90000
110152,'BROOKSHIRE~7', 138.0000,1,   7,   1,   1,1.02831936, -17.111376, 1.10000, 0.90000, 1.10000, 0.90000
110153,'HOCKLEY 2 1 ', 138.0000,1,   7,   1,   1,1.02653813, -19.650760, 1.10000, 0.90000, 1.10000, 0.90000
110154,'WALLER 1 1  ', 138.0000,1,   7,   1,   1,1.03265011, -12.465368, 1.10000, 0.90000, 1.10000, 0.90000
110155,'WALLER 2 1  ', 138.0000,1,   7,   1,   1,1.03076267, -13.454995, 1.10000, 0.90000, 1.10000, 0.90000
110156,'PATTISON 2 1', 138.0000,1,   7,   1,   1,1.03045106, -16.752470, 1.10000, 0.90000, 1.10000, 0.90000
110157,'WALLIS 1 1  ', 138.0000,1,   7,   1,   1,1.02375114, -15.875959, 1.10000, 0.90000, 1.10000, 0.90000
110158,'KATY 1 1    ', 138.0000,1,   7,   1,   1,1.02350056, -20.967789, 1.10000, 0.90000, 1.10000, 0.90000
110159,'SEALY 3 1   ', 138.0000,1,   7,   1,   1,1.03502679, -16.715546, 1.10000, 0.90000, 1.10000, 0.90000
110160,'SEALY 4 1   ', 345.0000,1,   7,   1,   1,1.03862250, -11.576647, 1.10000, 0.90000, 1.10000, 0.90000
110161,'SEALY 4 2   ', 138.0000,1,   7,   1,   1,1.03853106, -14.697858, 1.10000, 0.90000, 1.10000, 0.90000
110162,'GALENA PAR~1', 138.0000,1,   7,   1,   1,1.02386284, -24.819294, 1.10000, 0.90000, 1.10000, 0.90000
110163,'GALENA PAR~2',  69.0000,1,   7,   1,   1,1.01890087, -27.264507, 1.10000, 0.90000, 1.10000, 0.90000
110164,'HUMBLE 1 1  ',  69.0000,1,   7,   1,   1,1.00954044, -27.873217, 1.10000, 0.90000, 1.10000, 0.90000
110165,'HUMBLE 2 1  ', 138.0000,1,   7,   1,   1,1.01342583, -24.083319, 1.10000, 0.90000, 1.10000, 0.90000
110166,'HUMBLE 2 2  ',  69.0000,1,   7,   1,   1,1.01908493, -27.313141, 1.10000, 0.90000, 1.10000, 0.90000
110167,'HUMBLE 3 1  ',  69.0000,1,   7,   1,   1,1.01627183, -27.996858, 1.10000, 0.90000, 1.10000, 0.90000
110168,'HOUSTON 1 1 ',  69.0000,1,   7,   1,   1,1.00702870, -28.481245, 1.10000, 0.90000, 1.10000, 0.90000
110169,'HUMBLE 4 1  ', 138.0000,1,   7,   1,   1,1.01980305, -25.935224, 1.10000, 0.90000, 1.10000, 0.90000
110170,'HUMBLE 4 2  ',  69.0000,1,   7,   1,   1,1.02550173, -27.964900, 1.10000, 0.90000, 1.10000, 0.90000
110171,'HUMBLE 5 1  ',  69.0000,1,   7,   1,   1,1.01546562, -27.708950, 1.10000, 0.90000, 1.10000, 0.90000
110172,'HUMBLE 6 1  ', 138.0000,1,   7,   1,   1,1.00473499, -25.755245, 1.10000, 0.90000, 1.10000, 0.90000
110173,'HUMBLE 6 2  ',  69.0000,1,   7,   1,   1,1.00732398, -27.824012, 1.10000, 0.90000, 1.10000, 0.90000
110174,'HOUSTON 2 1 ', 138.0000,1,   7,   1,   1,1.01985860, -25.573046, 1.10000, 0.90000, 1.10000, 0.90000
110175,'HOUSTON 2 2 ',  69.0000,1,   7,   1,   1,1.00458980, -28.231907, 1.10000, 0.90000, 1.10000, 0.90000
110176,'HUMBLE 7 1  ', 138.0000,1,   7,   1,   1,1.00953174, -25.039593, 1.10000, 0.90000, 1.10000, 0.90000
110177,'HUMBLE 7 2  ',  69.0000,1,   7,   1,   1,1.01206517, -27.357590, 1.10000, 0.90000, 1.10000, 0.90000
110178,'HUMBLE 8 1  ',  69.0000,1,   7,   1,   1,1.02891207, -28.161710, 1.10000, 0.90000, 1.10000, 0.90000
110179,'HOUSTON 3 1 ',  69.0000,1,   7,   1,   1,1.01180470, -28.080470, 1.10000, 0.90000, 1.10000, 0.90000
110180,'KATY 2 1    ',  69.0000,1,   7,   1,   1,1.02123201, -25.487165, 1.10000, 0.90000, 1.10000, 0.90000
110181,'CYPRESS 1 1 ',  69.0000,1,   7,   1,   1,1.02100980, -25.027415, 1.10000, 0.90000, 1.10000, 0.90000
110182,'KATY 3 1    ',  69.0000,1,   7,   1,   1,1.01837146, -25.676378, 1.10000, 0.90000, 1.10000, 0.90000
110183,'KATY 4 1    ',  69.0000,1,   7,   1,   1,1.02366018, -25.460249, 1.10000, 0.90000, 1.10000, 0.90000
110184,'KATY 5 1    ',  69.0000,1,   7,   1,   1,1.02190006, -25.457192, 1.10000, 0.90000, 1.10000, 0.90000
110185,'KATY 6 1    ',  69.0000,1,   7,   1,   1,1.02928352, -24.287306, 1.10000, 0.90000, 1.10000, 0.90000
110186,'KATY 7 1    ',  69.0000,1,   7,   1,   1,1.02835763, -24.628187, 1.10000, 0.90000, 1.10000, 0.90000
110187,'KATY 8 1    ',  69.0000,1,   7,   1,   1,1.02376306, -25.437644, 1.10000, 0.90000, 1.10000, 0.90000
110188,'KATY 9 1    ', 138.0000,1,   7,   1,   1,1.02603149, -21.478679, 1.10000, 0.90000, 1.10000, 0.90000
110189,'KATY 9 2    ',  69.0000,1,   7,   1,   1,1.03376138, -24.606566, 1.10000, 0.90000, 1.10000, 0.90000
110190,'KATY 9 3    ',  18.0000,1,   7,   1,   1,1.02748585, -22.137852, 1.10000, 0.90000, 1.10000, 0.90000
110191,'KATY 9 4    ',   1.0000,1,   7,   1,   1,1.02748585, -22.137852, 1.10000, 0.90000, 1.10000, 0.90000
110192,'CYPRESS 2 1 ',  69.0000,1,   7,   1,   1,1.02167583, -25.412298, 1.10000, 0.90000, 1.10000, 0.90000
110193,'KATY 10 1   ',  69.0000,1,   7,   1,   1,1.01982510, -25.046270, 1.10000, 0.90000, 1.10000, 0.90000
110194,'CYPRESS 3 1 ',  69.0000,1,   7,   1,   1,1.02705789, -25.501707, 1.10000, 0.90000, 1.10000, 0.90000
110195,'KATY 11 1   ',  69.0000,1,   7,   1,   1,1.03230608, -25.426055, 1.10000, 0.90000, 1.10000, 0.90000
110196,'KATY 12 1   ',  69.0000,1,   7,   1,   1,1.02531779, -25.435054, 1.10000, 0.90000, 1.10000, 0.90000
110197,'KATY 13 1   ',  69.0000,1,   7,   1,   1,1.02100611, -24.948770, 1.10000, 0.90000, 1.10000, 0.90000
110198,'CYPRESS 4 1 ',  69.0000,1,   7,   1,   1,1.01796484, -25.223755, 1.10000, 0.90000, 1.10000, 0.90000
110199,'KATY 14 1   ',  69.0000,1,   7,   1,   1,1.02964294, -24.712413, 1.10000, 0.90000, 1.10000, 0.90000
110200,'CYPRESS 5 1 ',  69.0000,1,   7,   1,   1,1.02072179, -25.387166, 1.10000, 0.90000, 1.10000, 0.90000
...
0 / END OF BUS DATA, BEGIN LOAD DATA
110001,'1 ',1,   7,   1,     0.218,     0.080,     0.000,     0.000,     0.000,     0.000,   1,1, 0
110005,'1 ',1,   7,   1,    11.600,     4.160,     0.000,     0.000,     0.000,     0.000,   1,1, 0
110005,'5 ',1,   7,   1,    68.100,    34.500,     0.000,     0.000,     0.000,     0.000,   1,1, 0
110009,'1 ',1,   7,   1,     5.900,     2.030,     0.000,     0.000,     0.000,     0.000,   1,1, 0
110013,'1 ',1,   7,   1,    15.300,     3.540,     0.000,     0.000,     0.000,     0.000,   1,1, 0
110017,'1 ',1,   7,   1,    11.000,     2.710,     0.000,     0.000,     0.000,     0.000,   1,1, 0
110021,'1 ',1,   7,   1,     8.300,     1.880,     0.000,     0.000,     0.000,     0.000,   1,1, 0
110025,'1 ',1,   7,   1,     7.300,     2.110,     0.000,     0.000,     0.000,     0.000,   1,1, 0
110029,'1 ',1,   7,   1,     7.700,     2.030,     0.000,     0.000,     0.000,     0.000,   1,1, 0
110033,'1 ',1,   7,   1,     7.500,     1.800,     0.000,     0.000,     0.000,     0.000,   1,1, 0
110037,'1 ',1,   7,   1,     4.250,     0.680,     0.000,     0.000,     0.000,     0.000,   1,1, 0
110041,'1 ',1,   7,   1,     2.560,     0.530,     0.000,     0.000,     0.000,     0.000,   1,1, 0
110045,'1 ',1,   7,   1,     1.730,     0.530,     0.000,     0.000,     0.000,     0.000,   1,1, 0
110049,'1 ',1,   7,   1,     3.090,     0.301,     0.000,     0.000,     0.000,     0.000,   1,1, 0
110053,'1 ',1,   7,   1,     4.250,     0.680,     0.000,     0.000,     0.000,     0.000,   1,1, 0
110057,'1 ',1,   7,   1,     0.610,     0.212,     0.000,     0.000,     0.000,     0.000,   1,1, 0
110061,'1 ',1,   7,   1,     1.580,     0.380,     0.000,     0.000,     0.000,     0.000,   1,1, 0
110065,'1 ',1,   7,   1,     3.240,     1.050,     0.000,     0.000,     0.000,     0.000,   1,1, 0
110069,'1 ',1,   7,   1,    10.400,     2.260,     0.000,     0.000,     0.000,     0.000,   1,1, 0
110073,'1 ',1,   7,   1,     5.700,     1.130,     0.000,     0.000,     0.000,     0.000,   1,1, 0
110077,'1 ',1,   7,   1,     2.410,     0.450,     0.000,     0.000,     0.000,     0.000,   1,1, 0
110081,'1 ',1,   7,   1,     4.700,     0.221,     0.000,     0.000,     0.000,     0.000,   1,1, 0
110085,'1 ',1,   7,   1,     4.070,     1.050,     0.000,     0.000,     0.000,     0.000,   1,1, 0
110089,'1 ',1,   7,   1,     3.890,     0.380,     0.000,     0.000,     0.000,     0.000,   1,1, 0
110093,'1 ',1,   7,   1,     0.580,     0.142,     0.000,     0.000,     0.000,     0.000,   1,1, 0
110096,'5 ',1,   7,   1,   115.000,    75.200,     0.000,     0.000,     0.000,     0.000,   1,1, 0
110097,'1 ',1,   7,   1,     1.950,     0.450,     0.000,     0.000,     0.000,     0.000,   1,1, 0
110101,'1 ',1,   7,   1,     0.990,     0.301,     0.000,     0.000,     0.000,     0.000,   1,1, 0
110105,'1 ',1,   7,   1,     4.800,     0.301,     0.000,     0.000,     0.000,     0.000,   1,1, 0
110109,'1 ',1,   7,   1,     0.090,     0.009,     0.000,     0.000,     0.000,     0.000,   1,1, 0
110113,'1 ',1,   7,   1,     0.660,     0.221,     0.000,     0.000,     0.000,     0.000,   1,1, 0
110117,'1 ',1,   7,   1,     4.700,     0.750,     0.000,     0.000,     0.000,     0.000,   1,1, 0
110118,'1 ',1,   7,   1,     0.630,     0.221,     0.000,     0.000,     0.000,     0.000,   1,1, 0
110119,'1 ',1,   7,   1,     1.950,     0.680,     0.000,     0.000,     0.000,     0.000,   1,1, 0
110120,'1 ',1,   7,   1,     2.180,     0.600,     0.000,     0.000,     0.000,     0.000,   1,1, 0
110121,'1 ',1,   7,   1,     0.490,     0.159,     0.000,     0.000,     0.000,     0.000,   1,1, 0
110122,'1 ',1,   7,   1,     0.920,     0.301,     0.000,     0.000,     0.000,     0.000,   1,1, 0
110123,'1 ',1,   7,   1,     2.340,     0.450,     0.000,     0.000,     0.000,     0.000,   1,1, 0
110123,'5 ',1,   7,   1,   108.800,    78.700,     0.000,     0.000,     0.000,     0.000,   1,1, 0
110124,'1 ',1,   7,   1,     0.460,     0.088,     0.000,     0.000,     0.000,     0.000,   1,1, 0
110125,'1 ',1,   7,   1,    26.800,     4.330,     0.000,     0.000,     0.000,     0.000,   1,1, 0
110127,'1 ',1,   7,   1,    27.900,     5.700,     0.000,     0.000,     0.000,     0.000,   1,1, 0
110127,'5 ',1,   7,   1,   194.600,    76.100,     0.000,     0.000,     0.000,     0.000,   1,1, 0
110128,'1 ',1,   7,   1,    41.400,     6.700,     0.000,     0.000,     0.000,     0.000,   1,1, 0
110129,'1 ',1,   7,   1,    22.700,     2.560,     0.000,     0.000,     0.000,     0.000,   1,1, 0
110129,'2 ',1,   7,   1,    15.000,     5.700,     0.000,     0.000,     0.000,     0.000,   1,1, 0
110130,'1 ',1,   7,   1,    10.300,     1.130,     0.000,     0.000,     0.000,     0.000,   1,1, 0
110131,'1 ',1,   7,   1,    15.500,     2.560,     0.000,     0.000,     0.000,     0.000,   1,1, 0
110132,'1 ',1,   7,   1,    22.700,     4.070,     0.000,     0.000,     0.000,     0.000,   1,1, 0
110132,'5 ',1,   7,   1,    77.800,     5.300,     0.000,     0.000,     0.000,     0.000,   1,1, 0
110133,'1 ',1,   7,   1,     6.300,     1.950,     0.000,     0.000,     0.000,     0.000,   1,1, 0
110134,'1 ',1,   7,   1,     4.600,     0.600,     0.000,     0.000,     0.000,     0.000,   1,1, 0
110135,'1 ',1,   7,   1,    21.800,     6.700,     0.000,     0.000,     0.000,     0.000,   1,1, 0
110136,'1 ',1,   7,   1,     9.500,     3.090,     0.000,     0.000,     0.000,     0.000,   1,1, 0
110137,'1 ',1,   7,   1,    14.200,     2.340,     0.000,     0.000,     0.000,     0.000,   1,1, 0
110138,'1 ',1,   7,   1,    14.900,     5.300,     0.000,     0.000,     0.000,     0.000,   1,1, 0
110139,'1 ',1,   7,   1,     0.480,     0.080,     0.000,     0.000,     0.000,     0.000,   1,1, 0
110140,'1 ',1,   7,   1,     9.400,     1.350,     0.000,     0.000,     0.000,     0.000,   1,1, 0
110141,'1 ',1,   7,   1,     8.800,     2.860,     0.000,     0.000,     0.000,     0.000,   1,1, 0
110141,'2 ',1,   7,   1,     9.300,     2.110,     0.000,     0.000,     0.000,     0.000,   1,1, 0
110142,'1 ',1,   7,   1,     3.160,     0.900,     0.000,     0.000,     0.000,     0.000,   1,1, 0
110142,'2 ',1,   7,   1,    18.300,    15.600,     0.000,     0.000,     0.000,     0.000,   1,1, 0
110143,'1 ',1,   7,   1,     6.300,     0.900,     0.000,     0.000,     0.000,     0.000,   1,1, 0
110144,'1 ',1,   7,   1,     2.640,     0.301,     0.000,     0.000,     0.000,     0.000,   1,1, 0
110144,'5 ',1,   7,   1,    66.300,    33.600,     0.000,     0.000,     0.000,     0.000,   1,1, 0
110145,'1 ',1,   7,   1,     1.880,     0.380,     0.000,     0.000,     0.000,     0.000,   1,1, 0
110146,'1 ',1,   7,   1,     0.960,     0.221,     0.000,     0.000,     0.000,     0.000,   1,1, 0
110147,'1 ',1,   7,   1,     6.500,     0.830,     0.000,     0.000,     0.000,     0.000,   1,1, 0
110148,'1 ',1,   7,   1,     2.860,     0.221,     0.000,     0.000,     0.000,     0.000,   1,1, 0
110149,'1 ',1,   7,   1,     9.800,     3.540,     0.000,     0.000,     0.000,     0.000,   1,1, 0
110150,'1 ',1,   7,   1,     5.200,     1.580,     0.000,     0.000,     0.000,     0.000,   1,1, 0
110151,'1 ',1,   7,   1,     6.400,     2.030,     0.000,     0.000,     0.000,     0.000,   1,1, 0
110152,'1 ',1,   7,   1,     4.070,     0.530,     0.000,     0.000,     0.000,     0.000,   1,1, 0
110153,'1 ',1,   7,   1,     5.400,     1.950,     0.000,     0.000,     0.000,     0.000,   1,1, 0
110154,'1 ',1,   7,   1,     5.700,     1.730,     0.000,     0.000,     0.000,     0.000,   1,1, 0
110155,'1 ',1,   7,   1,     4.900,     1.730,     0.000,     0.000,     0.000,     0.000,   1,1, 0
110156,'1 ',1,   7,   1,     4.600,     0.750,     0.000,     0.000,     0.000,     0.000,   1,1, 0
110157,'1 ',1,   7,   1,     6.300,     0.680,     0.000,     0.000,     0.000,     0.000,   1,1, 0
110158,'1 ',1,   7,   1,     2.860,     0.750,     0.000,     0.000,     0.000,     0.000,   1,1, 0
110159,'1 ',1,   7,   1,     2.790,     0.980,     0.000,     0.000,     0.000,     0.000,   1,1, 0
110161,'1 ',1,   7,   1,     2.640,     0.221,     0.000,     0.000,     0.000,     0.000,   1,1, 0
110161,'2 ',1,   7,   1,     8.500,     6.400,     0.000,     0.000,     0.000,     0.000,   1,1, 0
110163,'1 ',1,   7,   1,    42.100,    12.600,     0.000,     0.000,     0.000,     0.000,   1,1, 0
110164,'1 ',1,   7,   1,    22.200,     6.700,     0.000,     0.000,     0.000,     0.000,   1,1, 0
110164,'2 ',1,   7,   1,     8.000,     4.800,     0.000,     0.000,     0.000,     0.000,   1,1, 0
110166,'1 ',1,   7,   1,    37.900,     5.700,     0.000,     0.000,     0.000,     0.000,   1,1, 0
110167,'1 ',1,   7,   1,    25.700,     3.240,     0.000,     0.000,     0.000,     0.000,   1,1, 0
110168,'1 ',1,   7,   1,    26.400,     5.600,     0.000,     0.000,     0.000,     0.000,   1,1, 0
110170,'1 ',1,   7,   1,    40.200,    11.000,     0.000,     0.000,     0.000,     0.000,   1,1, 0
110171,'1 ',1,   7,   1,     4.900,     1.580,     0.000,     0.000,     0.000,     0.000,   1,1, 0
110173,'1 ',1,   7,   1,    54.700,    11.600,     0.000,     0.000,     0.000,     0.000,   1,1, 0
110175,'1 ',1,   7,   1,    43.100,    11.700,     0.000,     0.000,     0.000,     0.000,   1,1, 0
110177,'1 ',1,   7,   1,    59.100,    16.800,     0.000,     0.000,     0.000,     0.000,   1,1, 0
110177,'2 ',1,   7,   1,    17.800,     1.950,     0.000,     0.000,     0.000,     0.000,   1,1, 0
110178,'1 ',1,   7,   1,    33.300,    10.300,     0.000,     0.000,     0.000,     0.000,   1,1, 0
110179,'1 ',1,   7,   1,    23.400,     7.100,     0.000,     0.000,     0.000,     0.000,   1,1, 0
110180,'1 ',1,   7,   1,    10.000,     2.180,     0.000,     0.000,     0.000,     0.000,   1,1, 0
110181,'1 ',1,   7,   1,     5.300,     1.280,     0.000,     0.000,     0.000,     0.000,   1,1, 0
110181,'2 ',1,   7,   1,    11.900,     9.300,     0.000,     0.000,     0.000,     0.000,   1,1, 0
110182,'1 ',1,   7,   1,     6.400,     1.950,     0.000,     0.000,     0.000,     0.000,   1,1, 0
110183,'1 ',1,   7,   1,     9.200,     3.310,     0.000,     0.000,     0.000,     0.000,   1,1, 0
110184,'1 ',1,   7,   1,     5.300,     1.280,     0.000,     0.000,     0.000,     0.000,   1,1, 0
110185,'1 ',1,   7,   1,     3.890,     1.130,     0.000,     0.000,     0.000,     0.000,   1,1, 0
110186,'1 ',1,   7,   1,     5.300,     0.830,     0.000,     0.000,     0.000,     0.000,   1,1, 0
110187,'1 ',1,   7,   1,    10.800,     2.640,     0.000,     0.000,     0.000,     0.000,   1,1, 0
110187,'2 ',1,   7,   1,     6.100,     5.300,     0.000,     0.000,     0.000,     0.000,   1,1, 0
110189,'1 ',1,   7,   1,     7.900,     1.200,     0.000,     0.000,     0.000,     0.000,   1,1, 0
110192,'1 ',1,   7,   1,     6.400,     1.580,     0.000,     0.000,     0.000,     0.000,   1,1, 0
110193,'1 ',1,   7,   1,     5.700,     1.430,     0.000,     0.000,     0.000,     0.000,   1,1, 0
110194,'1 ',1,   7,   1,     3.610,     0.150,     0.000,     0.000,     0.000,     0.000,   1,1, 0
110195,'1 ',1,   7,   1,     4.800,     1.500,     0.000,     0.000,     0.000,     0.000,   1,1, 0
110196,'1 ',1,   7,   1,     2.410,     0.530,     0.000,     0.000,     0.000,     0.000,   1,1, 0
110197,'1 ',1,   7,   1,     8.000,     2.710,     0.000,     0.000,     0.000,     0.000,   1,1, 0
110198,'1 ',1,   7,   1,     5.300,     1.580,     0.000,     0.000,     0.000,     0.000,   1,1, 0
110198,'2 ',1,   7,   1,    10.800,     6.700,     0.000,     0.000,     0.000,     0.000,   1,1, 0
110199,'1 ',1,   7,   1,     4.800,     1.500,     0.000,     0.000,     0.000,     0.000,   1,1, 0
110200,'1 ',1,   7,   1,     7.300,     2.110,     0.000,     0.000,     0.000,     0.000,   1,1, 0
110201,'1 ',1,   7,   1,     4.420,     0.900,     0.000,     0.000,     0.000,     0.000,   1,1, 0
110202,'1 ',1,   7,   1,     3.240,     0.680,     0.000,     0.000,     0.000,     0.000,   1,1, 0
110203,'1 ',1,   7,   1,     3.010,     0.221,     0.000,     0.000,     0.000,     0.000,   1,1, 0
110204,'1 ',1,   7,   1,     1.330,     0.301,     0.000,     0.000,     0.000,     0.000,   1,1, 0
110205,'1 ',1,   7,   1,     3.690,     0.600,     0.000,     0.000,     0.000,     0.000,   1,1, 0
110206,'1 ',1,   7,   1,     5.800,     1.500,     0.000,     0.000,     0.000,     0.000,   1,1, 0
110207,'1 ',1,   7,   1,     3.890,     0.830,     0.000,     0.000,     0.000,     0.000,   1,1, 0
110208,'1 ',1,   7,   1,     5.300,     0.750,     0.000,     0.000,     0.000,     0.000,   1,1, 0
110209,'1 ',1,   7,   1,     8.000,     2.940,     0.000,     0.000,     0.000,     0.000,   1,1, 0
110210,'1 ',1,   7,   1,     7.500,     1.800,     0.000,     0.000,     0.000,     0.000,   1,1, 0
110211,'1 ',1,   7,   1,     5.300,     1.950,     0.000,     0.000,     0.000,     0.000,   1,1, 0
110212,'5 ',1,   7,   1,    63.700,    41.600,     0.000,     0.000,     0.000,     0.000,   1,1, 0
110213,'1 ',1,   7,   1,     6.800,     2.340,     0.000,     0.000,     0.000,     0.000,   1,1, 0
110214,'1 ',1,   7,   1,     4.900,     1.730,     0.000,     0.000,     0.000,     0.000,   1,1, 0
110215,'1 ',1,   7,   1,     5.400,     1.430,     0.000,     0.000,     0.000,     0.000,   1,1, 0
110216,'1 ',1,   7,   1,     8.700,     2.340,     0.000,     0.000,     0.000,     0.000,   1,1, 0
110217,'1 ',1,   7,   1,     7.000,     2.110,     0.000,     0.000,     0.000,     0.000,   1,1, 0
110218,'1 ',1,   7,   1,     4.330,     1.200,     0.000,     0.000,     0.000,     0.000,   1,1, 0
110219,'1 ',1,   7,   1,     3.690,     1.130,     0.000,     0.000,     0.000,     0.000,   1,1, 0
110220,'1 ',1,   7,   1,     3.890,     0.750,     0.000,     0.000,     0.000,     0.000,   1,1, 0
110221,'1 ',1,   7,   1,     1.950,     0.450,     0.000,     0.000,     0.000,     0.000,   1,1, 0
110222,'1 ',1,   7,   1,     3.390,     1.200,     0.000,     0.000,     0.000,     0.000,   1,1, 0
110223,'1 ',1,   7,   1,     7.400,     2.640,     0.000,     0.000,     0.000,     0.000,   1,1, 0
110224,'1 ',1,   7,   1,     3.800,     1.200,     0.000,     0.000,     0.000,     0.000,   1,1, 0
110225,'1 ',1,   7,   1,     5.600,     0.150,     0.000,     0.000,     0.000,     0.000,   1,1, 0
110226,'1 ',1,   7,   1,     6.000,     1.050,     0.000,     0.000,     0.000,     0.000,   1,1, 0
110227,'1 ',1,   7,   1,     2.490,     0.450,     0.000,     0.000,     0.000,     0.000,   1,1, 0
110228,'1 ',1,   7,   1,     3.090,     0.900,     0.000,     0.000,     0.000,     0.000,   1,1, 0
110229,'1 ',1,   7,   1,     4.600,     1.130,     0.000,     0.000,     0.000,     0.000,   1,1, 0
110230,'1 ',1,   7,   1,     2.180,     0.600,     0.000,     0.000,     0.000,     0.000,   1,1, 0
110231,'1 ',1,   7,   1,     1.800,     0.380,     0.000,     0.000,     0.000,     0.000,   1,1, 0
110232,'1 ',1,   7,   1,     6.200,     1.800,     0.000,     0.000,     0.000,     0.000,   1,1, 0
110233,'1 ',1,   7,   1,     2.860,     0.830,     0.000,     0.000,     0.000,     0.000,   1,1, 0
110234,'1 ',1,   7,   1,     3.240,     0.830,     0.000,     0.000,     0.000,     0.000,   1,1, 0
110235,'1 ',1,   7,   1,     5.000,     0.150,     0.000,     0.000,     0.000,     0.000,   1,1, 0
110236,'1 ',1,   7,   1,     3.010,     0.750,     0.000,     0.000,     0.000,     0.000,   1,1, 0
110237,'1 ',1,   7,   1,     1.320,     0.380,     0.000,     0.000,     0.000,     0.000,   1,1, 0
110238,'1 ',1,   7,   1,     6.100,     1.950,     0.000,     0.000,     0.000,     0.000,   1,1, 0
110239,'1 ',1,   7,   1,     4.330,     1.200,     0.000,     0.000,     0.000,     0.000,   1,1, 0
110240,'1 ',1,   7,   1,     5.700,     1.350,     0.000,     0.000,     0.000,     0.000,   1,1, 0
110241,'1 ',1,   7,   1,     1.950,     0.380,     0.000,     0.000,     0.000,     0.000,   1,1, 0
110242,'1 ',1,   7,   1,     4.600,     1.580,     0.000,     0.000,     0.000,     0.000,   1,1, 0
110243,'1 ',1,   7,   1,     4.800,     1.430,     0.000,     0.000,     0.000,     0.000,   1,1, 0
110244,'1 ',1,   7,   1,     4.250,     1.430,     0.000,     0.000,     0.000,     0.000,   1,1, 0
110245,'1 ',1,   7,   1,     5.400,     0.980,     0.000,     0.000,     0.000,     0.000,   1,1, 0
110246,'1 ',1,   7,   1,     6.500,     1.950,     0.000,     0.000,     0.000,     0.000,   1,1, 0
110247,'1 ',1,   7,   1,     4.250,     0.680,     0.000,     0.000,     0.000,     0.000,   1,1, 0
110248,'1 ',1,   7,   1,     5.600,     0.980,     0.000,     0.000,     0.000,     0.000,   1,1, 0
110249,'1 ',1,   7,   1,     5.600,     0.900,     0.000,     0.000,     0.000,     0.000,   1,1, 0
110250,'1 ',1,   7,   1,     4.500,     1.280,     0.000,     0.000,     0.000,     0.000,   1,1, 0
110251,'1 ',1,   7,   1,     5.000,     1.050,     0.000,     0.000,     0.000,     0.000,   1,1, 0
110252,'1 ',1,   7,   1,     2.790,     0.380,     0.000,     0.000,     0.000,     0.000,   1,1, 0
110253,'1 ',1,   7,   1,     4.250,     0.380,     0.000,     0.000,     0.000,     0.000,   1,1, 0
110254,'1 ',1,   7,   1,     5.700,     0.750,     0.000,     0.000,     0.000,     0.000,   1,1, 0
110255,'1 ',1,   7,   1,     7.600,     0.980,     0.000,     0.000,     0.000,     0.000,   1,1, 0
110256,'1 ',1,   7,   1,     5.600,     1.880,     0.000,     0.000,     0.000,     0.000,   1,1, 0
110257,'1 ',1,   7,   1,     5.700,     1.280,     0.000,     0.000,     0.000,     0.000,   1,1, 0
110258,'1 ',1,   7,   1,     2.260,     0.680,     0.000,     0.000,     0.000,     0.000,   1,1, 0
110259,'1 ',1,   7,   1,     7.200,     1.130,     0.000,     0.000,     0.000,     0.000,   1,1, 0
110260,'1 ',1,   7,   1,     1.140,     0.150,     0.000,     0.000,     0.000,     0.000,   1,1, 0
110261,'1 ',1,   7,   1,     8.900,     2.560,     0.000,     0.000,     0.000,     0.000,   1,1, 0
110263,'1 ',1,   7,   1,     8.900,     2.640,     0.000,     0.000,     0.000,     0.000,   1,1, 0
110264,'1 ',1,   7,   1,     4.600,     0.900,     0.000,     0.000,     0.000,     0.000,   1,1, 0
110265,'1 ',1,   7,   1,     7.400,     0.221,     0.000,     0.000,     0.000,     0.000,   1,1, 0
110266,'1 ',1,   7,   1,     7.200,     0.530,     0.000,     0.000,     0.000,     0.000,   1,1, 0
110267,'1 ',1,   7,   1,     6.700,     1.650,     0.000,     0.000,     0.000,     0.000,   1,1, 0
110268,'1 ',1,   7,   1,     9.300,     1.730,     0.000,     0.000,     0.000,     0.000,   1,1, 0
110268,'2 ',1,   7,   1,     6.800,     7.000,     0.000,     0.000,     0.000,     0.000,   1,1, 0
110269,'1 ',1,   7,   1,     6.800,     1.800,     0.000,     0.000,     0.000,     0.000,   1,1, 0
110270,'1 ',1,   7,   1,     4.250,     1.050,     0.000,     0.000,     0.000,     0.000,   1,1, 0
110271,'1 ',1,   7,   1,     6.800,     1.800,     0.000,     0.000,     0.000,     0.000,   1,1, 0
110272,'1 ',1,   7,   1,     8.000,     1.050,     0.000,     0.000,     0.000,     0.000,   1,1, 0
110274,'1 ',1,   7,   1,     7.600,     1.880,     0.000,     0.000,     0.000,     0.000,   1,1, 0
110275,'1 ',1,   7,   1,     9.300,     2.490,     0.000,     0.000,     0.000,     0.000,   1,1, 0
110276,'1 ',1,   7,   1,     5.100,     1.050,     0.000,     0.000,     0.000,     0.000,   1,1, 0
110277,'1 ',1,   7,   1,     3.090,     0.600,     0.000,     0.000,     0.000,     0.000,   1,1, 0
110277,'2 ',1,   7,   1,     7.500,     0.900,     0.000,     0.000,     0.000,     0.000,   1,1, 0
110278,'1 ',1,   7,   1,     3.760,     0.450,     0.000,     0.000,     0.000,     0.000,   1,1, 0
110278,'2 ',1,   7,   1,     7.700,     2.030,     0.000,     0.000,     0.000,     0.000,   1,1, 0
110279,'1 ',1,   7,   1,     1.060,     0.080,     0.000,     0.000,     0.000,     0.000,   1,1, 0
110280,'1 ',1,   7,   1,     2.410,     0.600,     0.000,     0.000,     0.000,     0.000,   1,1, 0
110281,'1 ',1,   7,   1,     1.650,     0.150,     0.000,     0.000,     0.000,     0.000,   1,1, 0
110282,'1 ',1,   7,   1,     1.050,     0.150,     0.000,     0.000,     0.000,     0.000,   1,1, 0
...
0 / END OF LOAD DATA, BEGIN FIXED SHUNT DATA
110126,'2 ', 1,     0.000,    38.420
110160,'2 ', 1,     0.000,    22.913
110178,'2 ', 1,     0.000,    35.000
110194,'2 ', 1,     0.000,     0.000
110206,'2 ', 1,     0.000,     0.000
110224,'2 ', 1,     0.000,    43.200
110252,'2 ', 1,     0.000,    42.000
110267,'2 ', 1,     0.000,    51.200
110276,'2 ', 1,     0.000,     0.000
110350,'2 ', 1,     0.000,     0.000
110351,'2 ', 1,     0.000,    26.100
110426,'2 ', 1,     0.000,    56.800
110440,'2 ', 1,     0.000,    60.500
110479,'2 ', 1,     0.000,    39.200
110538,'2 ', 1,     0.000,    89.600
110558,'2 ', 1,     0.000,    64.462
110619,'2 ', 1,     0.000,     0.000
110633,'2 ', 1,     0.000,    14.904
110675,'2 ', 1,     0.000,    19.037
110712,'2 ', 1,     0.000,    63.900
110761,'2 ', 1,     0.000,    49.500
110776,'2 ', 1,     0.000,    61.800
110784,'2 ', 1,     0.000,    80.400
110805,'2 ', 1,     0.000,    26.665
110809,'2 ', 1,     0.000,    49.000
110834,'2 ', 1,     0.000,    87.000
110883,'2 ', 1,     0.000,    85.482
110893,'2 ', 1,     0.000,     0.000
110896,'2 ', 1,     0.000,    23.400
110913,'2 ', 1,     0.000,    47.200
110918,'2 ', 1,     0.000,    64.867
110943,'2 ', 1,     0.000,    74.032
110943,'3 ', 1,     0.000,    74.032
110972,'2 ', 1,     0.000,    93.239
110972,'3 ', 1,     0.000,    93.239
110994,'2 ', 1,     0.000,    37.057
111035,'2 ', 1,     0.000,    64.363
111035,'3 ', 1,     0.000,    64.363
111035,'4 ', 1,     0.000,    64.363
111038,'2 ', 1,     0.000,    22.800
111095,'2 ', 1,     0.000,    22.400
111112,'2 ', 1,     0.000,    76.200
111207,'2 ', 1,     0.000,   120.440
111284,'2 ', 1,     0.000,    30.930
111362,'2 ', 1,     0.000,    70.860
111370,'2 ', 1,     0.000,   104.320
111389,'2 ', 1,     0.000,    37.870
120075,'2 ', 1,     0.000,     0.000
120093,'2 ', 1,     0.000,     0.000
120132,'2 ', 1,     0.000,     0.000
120203,'2 ', 1,     0.000,     0.000
120273,'2 ', 1,     0.000,     0.000
120286,'2 ', 1,     0.000,     0.000
120319,'2 ', 1,     0.000,    52.500
120319,'3 ', 1,     0.000,     0.000
120365,'2 ', 1,     0.000,    37.325
120383,'2 ', 1,     0.000,    66.400
120388,'2 ', 1,     0.000,   112.000
120437,'2 ', 1,     0.000,    39.720
120471,'2 ', 1,     0.000,    99.000
120471,'3 ', 1,     0.000,    99.000
130049,'2 ', 1,     0.000,   132.000
130049,'3 ', 1,     0.000,    61.600
130066,'2 ', 1,     0.000,    15.400
130066,'3 ', 1,     0.000,     0.000
130066,'4 ', 1,     0.000,     0.000
130073,'2 ', 1,     0.000,    14.100
130136,'2 ', 1,     0.000,     0.000
130194,'2 ', 1,     0.000,     0.000
130234,'2 ', 1,     0.000,    19.800
130256,'2 ', 1,     0.000,    33.000
130290,'2 ', 1,     0.000,     0.000
130354,'2 ', 1,     0.000,    19.800
130357,'2 ', 1,     0.000,   165.580
130357,'3 ', 1,     0.000,   165.580
130367,'2 ', 1,     0.000,     0.000
140036,'2 ', 1,     0.000,    14.914
140061,'2 ', 1,     0.000,    56.800
140107,'2 ', 1,     0.000,     0.000
140204,'2 ', 1,     0.000,    45.400
140266,'2 ', 1,     0.000,    82.950
140303,'2 ', 1,     0.000,   124.210
150007,'2 ', 1,     0.000,     0.000
150030,'2 ', 1,     0.000,     0.000
150049,'2 ', 1,     0.000,     0.000
150071,'2 ', 1,     0.000,    19.500
150120,'2 ', 1,     0.000,     0.000
150120,'3 ', 1,     0.000,     0.000
150120,'4 ', 1,     0.000,     0.000
150136,'2 ', 1,     0.000,    32.400
150182,'2 ', 1,     0.000,    10.200
150242,'2 ', 1,     0.000,    27.800
150245,'2 ', 1,     0.000,     0.000
150274,'2 ', 1,     0.000,     0.000
150276,'2 ', 1,     0.000,     0.000
150305,'2 ', 1,     0.000,     0.000
150318,'2 ', 1,     0.000,    10.200
150329,'2 ', 1,     0.000,    39.900
150353,'2 ', 1,     0.000,    30.400
150388,'2 ', 1,     0.000,    11.979
150440,'2 ', 1,     0.000,    58.470
150479,'2 ', 1,     0.000,   159.780
150493,'2 ', 1,     0.000,    99.300
150493,'3 ', 1,     0.000,    39.600
150497,'2 ', 1,     0.000,    85.532
150497,'3 ', 1,     0.000,    85.532
150497,'4 ', 1,     0.000,    85.532
150513,'2 ', 1,     0.000,    69.980
150526,'2 ', 1,     0.000,     0.000
150532,'2 ', 1,     0.000,    76.500
150550,'2 ', 1,     0.000,   164.190
160156,'2 ', 1,     0.000,    56.244
160168,'2 ', 1,     0.000,     9.673
160203,'2 ', 1,     0.000,    31.220
160284,'2 ', 1,     0.000,     7.737
170035,'2 ', 1,     0.000,     0.000
170042,'2 ', 1,     0.000,    12.490
170064,'2 ', 1,     0.000,     0.000
170086,'2 ', 1,     0.000,     0.000
170094,'2 ', 1,     0.000,     0.000
170108,'2 ', 1,     0.000,    14.600
170111,'2 ', 1,     0.000,     0.000
170147,'2 ', 1,     0.000,     0.000
170148,'2 ', 1,     0.000,     0.000
170167,'2 ', 1,     0.000,     0.000
170213,'2 ', 1,     0.000,    36.000
170218,'2 ', 1,     0.000,    19.100
170218,'3 ', 1,     0.000,     0.000
170263,'2 ', 1,     0.000,    47.800
170283,'2 ', 1,     0.000,     0.000
170286,'2 ', 1,     0.000,     0.000
170290,'2 ', 1,     0.000,    55.177
170308,'2 ', 1,     0.000,    26.800
170346,'2 ', 1,     0.000,     8.300
170365,'2 ', 1,     0.000,    98.400
170370,'2 ', 1,     0.000,    26.150
170382,'2 ', 1,     0.000,    33.940
170385,'2 ', 1,     0.000,    61.500
170404,'2 ', 1,     0.000,    64.210
170436,'2 ', 1,     0.000,    25.200
170526,'2 ', 1,     0.000,    26.429
190001,'2 ', 1,     0.000,    21.761
190058,'2 ', 1,     0.000,     0.000
190083,'2 ', 1,     0.000,    22.558
190100,'2 ', 1,     0.000,     0.000
200007,'2 ', 1,     0.000,    33.028
200017,'2 ', 1,     0.000,    18.289
200019,'2 ', 1,     0.000,     0.000
200040,'2 ', 1,     0.000,    37.471
200054,'2 ', 1,     0.000,    12.812
200100,'2 ', 1,     0.000,    21.917
200123,'2 ', 1,     0.000,    36.037
200133,'2 ', 1,     0.000,    41.089
200154,'2 ', 1,     0.000,    20.745
210008,'2 ', 1,     0.000,     0.000
210039,'2 ', 1,     0.000,     8.700
210119,'2 ', 1,     0.000,     0.000
210121,'2 ', 1,     0.000,     0.000
210141,'2 ', 1,     0.000,     6.900
210158,'2 ', 1,     0.000,     0.000
210165,'2 ', 1,     0.000,     0.000
210194,'2 ', 1,     0.000,     0.000
210281,'2 ', 1,     0.000,     0.000
210326,'2 ', 1,     0.000,     0.000
210352,'2 ', 1,     0.000,     0.000
220090,'2 ', 1,     0.000,    64.000
220184,'2 ', 1,     0.000,     0.000
230040,'2 ', 1,     0.000,    30.000
230068,'2 ', 1,     0.000,    43.800
240064,'2 ', 1,     0.000,     0.000
240104,'2 ', 1,     0.000,     0.000
240127,'2 ', 1,     0.000,     0.000
240161,'2 ', 1,     0.000,    56.691
240180,'2 ', 1,     0.000,     0.000
240276,'2 ', 1,     0.000,    62.913
240276,'3 ', 1,     0.000,    62.913
240276,'4 ', 1,     0.000,    64.000
240302,'2 ', 1,     0.000,     0.000
240305,'2 ', 1,     0.000,     0.000
240318,'2 ', 1,     0.000,    48.770
250107,'2 ', 1,     0.000,    15.036
250202,'2 ', 1,     0.000,     0.000
250203,'2 ', 1,     0.000,    28.190
250230,'2 ', 1,     0.000,     0.000
250240,'2 ', 1,     0.000,    51.370
250246,'2 ', 1,     0.000,     0.000
250335,'2 ', 1,     0.000,    19.200
260059,'2 ', 1,     0.000,    26.000
260067,'2 ', 1,     0.000,    50.800
260105,'2 ', 1,     0.000,   156.800
260105,'3 ', 1,     0.000,   156.500
260118,'2 ', 1,     0.000,    17.900
260119,'2 ', 1,     0.000,   144.432
260119,'3 ', 1,     0.000,   144.432
260119,'4 ', 1,     0.000,   146.000
260147,'2 ', 1,     0.000,    42.900
260160,'2 ', 1,     0.000,     5.300
260163,'2 ', 1,     0.000,    21.090
260179,'2 ', 1,     0.000,    25.500
260185,'2 ', 1,     0.000,    12.200
...
0 / END OF FIXED SHUNT DATA, BEGIN GENERATOR DATA
111180,'1 ',   643.518,     1.541,   379.710,  -250.067,1.04000,111179,   895.200,   0.00000,   0.37360,   0.00000,   0.00000,1.00000,1,  100.0,   746.000,    87.520,   1,1.0000,   0,1.0000,   0,1.0000,   0,1.0000,0, 1.0000
111181,'1 ',   630.206,     1.541,   381.240,  -231.351,1.04000,111179,   898.800,   0.00000,   0.14080,   0.00000,   0.00000,1.00000,1,  100.0,   749.000,   303.730,   1,1.0000,   0,1.0000,   0,1.0000,   0,1.0000,0, 1.0000
111183,'1 ',    46.582,    21.809,    27.490,   -15.800,1.04000,    0,    64.800,   0.00000,   0.35710,   0.00000,   0.00000,1.00000,1,  100.0,    54.000,    15.730,   1,1.0000,   0,1.0000,   0,1.0000,   0,1.0000,0, 1.0000
111184,'1 ',    23.417,    27.490,    27.490,   -18.365,1.04000,    0,    64.800,   0.00000,   0.12890,   0.00000,   0.00000,1.00000,1,  100.0,    54.000,     6.300,   1,1.0000,   0,1.0000,   0,1.0000,   0,1.0000,0, 1.0000
111185,'1 ',    46.582,    22.617,    27.490,   -16.918,1.04000,    0,    64.800,   0.00000,   0.27340,   0.00000,   0.00000,1.00000,1,  100.0,    54.000,    23.180,   1,1.0000,   0,1.0000,   0,1.0000,   0,1.0000,0, 1.0000
111186,'1 ',    43.131,    21.284,    25.450,   -14.495,1.04000,    0,    60.000,   0.00000,   0.11000,   0.00000,   0.00000,1.00000,1,  100.0,    50.000,    23.190,   1,1.0000,   0,1.0000,   0,1.0000,   0,1.0000,0, 1.0000
111187,'1 ',    55.208,    28.681,    32.580,   -17.087,1.04000,    0,    76.800,   0.00000,   0.12500,   0.00000,   0.00000,1.00000,1,  100.0,    64.000,    21.890,   1,1.0000,   0,1.0000,   0,1.0000,   0,1.0000,0, 1.0000
111188,'1 ',    43.397,    17.198,    27.490,   -18.665,1.04000,    0,    64.800,   0.00000,   0.17490,   0.00000,   0.00000,1.00000,1,  100.0,    54.000,    26.280,   1,1.0000,   0,1.0000,   0,1.0000,   0,1.0000,0, 1.0000
111190,'1 ',    60.566,     5.897,    52.940,   -32.246,1.04000,    0,   124.800,   0.00000,   0.16500,   0.00000,   0.00000,1.00000,1,  100.0,   104.000,    27.600,   1,1.0000,   0,1.0000,   0,1.0000,   0,1.0000,0, 1.0000
111191,'1 ',    81.406,     8.330,    52.940,   -33.749,1.04000,    0,   124.800,   0.00000,   0.10690,   0.00000,   0.00000,1.00000,1,  100.0,   104.000,    48.440,   1,1.0000,   0,1.0000,   0,1.0000,   0,1.0000,0, 1.0000
111192,'1 ',    49.170,    10.123,    29.010,   -16.931,1.04000,    0,    68.400,   0.00000,   0.12170,   0.00000,   0.00000,1.00000,1,  100.0,    57.000,    20.520,   1,1.0000,   0,1.0000,   0,1.0000,   0,1.0000,0, 1.0000
111193,'1 ',    32.718,     6.754,    29.010,   -15.977,1.04000,    0,    68.400,   0.00000,   0.13020,   0.00000,   0.00000,1.00000,1,  100.0,    57.000,    14.650,   1,1.0000,   0,1.0000,   0,1.0000,   0,1.0000,0, 1.0000
111194,'1 ',    49.170,     8.940,    29.010,   -16.846,1.04000,    0,    68.400,   0.00000,   0.20270,   0.00000,   0.00000,1.00000,1,  100.0,    57.000,    28.410,   1,1.0000,   0,1.0000,   0,1.0000,   0,1.0000,0, 1.0000
111195,'1 ',    49.170,     5.735,    29.010,   -16.909,1.04000,    0,    68.400,   0.00000,   0.13840,   0.00000,   0.00000,1.00000,1,  100.0,    57.000,    24.090,   1,1.0000,   0,1.0000,   0,1.0000,   0,1.0000,0, 1.0000
111196,'1 ',    49.170,     7.512,    29.010,   -15.263,1.04000,    0,    68.400,   0.00000,   0.10370,   0.00000,   0.00000,1.00000,1,  100.0,    57.000,    14.150,   1,1.0000,   0,1.0000,   0,1.0000,   0,1.0000,0, 1.0000
111197,'1 ',    49.170,     5.052,    29.010,   -18.086,1.04000,    0,    68.400,   0.00000,   0.13240,   0.00000,   0.00000,1.00000,1,  100.0,    57.000,    13.050,   1,1.0000,   0,1.0000,   0,1.0000,   0,1.0000,0, 1.0000
111198,'1 ',    49.170,     5.019,    29.010,   -17.449,1.04000,    0,    68.400,   0.00000,   0.13740,   0.00000,   0.00000,1.00000,1,  100.0,    57.000,    13.030,   1,1.0000,   0,1.0000,   0,1.0000,   0,1.0000,0, 1.0000
111199,'1 ',    43.138,     4.825,    29.010,   -18.575,1.04000,    0,    68.400,   0.00000,   0.13460,   0.00000,   0.00000,1.00000,1,  100.0,    57.000,    25.070,   1,1.0000,   0,1.0000,   0,1.0000,   0,1.0000,0, 1.0000
111200,'1 ',    44.255,     7.352,    29.520,   -15.638,1.04000,    0,    69.600,   0.00000,   0.24100,   0.00000,   0.00000,1.00000,1,  100.0,    58.000,    25.870,   1,1.0000,   0,1.0000,   0,1.0000,   0,1.0000,0, 1.0000
111201,'1 ',    50.032,     4.640,    29.520,   -14.742,1.04000,    0,    69.600,   0.00000,   0.12790,   0.00000,   0.00000,1.00000,1,  100.0,    58.000,    25.900,   1,1.0000,   0,1.0000,   0,1.0000,   0,1.0000,0, 1.0000
111202,'1 ',    50.032,     5.567,    29.520,   -16.542,1.04000,    0,    69.600,   0.00000,   0.27990,   0.00000,   0.00000,1.00000,1,  100.0,    58.000,    10.820,   1,1.0000,   0,1.0000,   0,1.0000,   0,1.0000,0, 1.0000
111203,'1 ',    50.032,     8.899,    29.520,   -15.654,1.04000,    0,    69.600,   0.00000,   0.28750,   0.00000,   0.00000,1.00000,1,  100.0,    58.000,     8.970,   1,1.0000,   0,1.0000,   0,1.0000,   0,1.0000,0, 1.0000
111204,'1 ',    36.075,     7.065,    29.520,   -16.446,1.04000,    0,    69.600,   0.00000,   0.36100,   0.00000,   0.00000,1.00000,1,  100.0,    58.000,    17.690,   1,1.0000,   0,1.0000,   0,1.0000,   0,1.0000,0, 1.0000
111205,'1 ',    45.135,     7.159,    29.520,   -19.791,1.04000,    0,    69.600,   0.00000,   0.11520,   0.00000,   0.00000,1.00000,1,  100.0,    58.000,    26.750,   1,1.0000,   0,1.0000,   0,1.0000,   0,1.0000,0, 1.0000
111206,'1 ',     0.000,     0.000,     6.620,    -3.797,1.04000,    0,    15.600,   0.00000,   0.23440,   0.00000,   0.00000,1.00000,0,  100.0,    13.000,     3.030,   1,1.0000,   0,1.0000,   0,1.0000,   0,1.0000,0, 1.0000
111208,'1 ',   572.783,     3.332,   309.420,  -167.626,1.04000,111207,   796.800,   0.00000,   0.14950,   0.00000,   0.00000,1.00000,1,  100.0,   664.000,   149.200,   1,1.0000,   0,1.0000,   0,1.0000,   0,1.0000,0, 1.0000
111209,'1 ',   571.920,     3.332,   308.960,  -223.785,1.04000,111207,   795.600,   0.00000,   0.22730,   0.00000,   0.00000,1.00000,1,  100.0,   663.000,    76.510,   1,1.0000,   0,1.0000,   0,1.0000,   0,1.0000,0, 1.0000
111210,'1 ',     0.000,     0.000,   284.260,  -206.117,1.04000,111207,   732.000,   0.00000,   0.32430,   0.00000,   0.00000,1.00000,0,  100.0,   610.000,   224.350,   1,1.0000,   0,1.0000,   0,1.0000,   0,1.0000,0, 1.0000
111211,'1 ',     0.000,     0.000,   268.880,  -194.275,1.04000,111207,   692.400,   0.00000,   0.19750,   0.00000,   0.00000,1.00000,0,  100.0,   577.000,   183.070,   1,1.0000,   0,1.0000,   0,1.0000,   0,1.0000,0, 1.0000
111212,'1 ',     0.000,     0.000,     6.620,    -3.760,1.04000,    0,    15.600,   0.00000,   0.10120,   0.00000,   0.00000,1.00000,0,  100.0,    13.000,     1.490,   1,1.0000,   0,1.0000,   0,1.0000,   0,1.0000,0, 1.0000
111212,'2 ',   476.169,     3.332,   280.970,  -182.789,1.04000,111207,   662.400,   0.00000,   0.30990,   0.00000,   0.00000,1.00000,1,  100.0,   552.000,   165.980,   1,1.0000,   0,1.0000,   0,1.0000,   0,1.0000,0, 1.0000
111213,'1 ',   235.497,     3.332,   138.960,   -70.380,1.04000,111207,   327.600,   0.00000,   0.20130,   0.00000,   0.00000,1.00000,1,  100.0,   273.000,    34.500,   1,1.0000,   0,1.0000,   0,1.0000,   0,1.0000,0, 1.0000
111214,'1 ',   145.784,     0.445,    86.020,   -58.457,1.04000,    0,   202.800,   0.00000,   0.18460,   0.00000,   0.00000,1.00000,1,  100.0,   169.000,    44.200,   1,1.0000,   0,1.0000,   0,1.0000,   0,1.0000,0, 1.0000
111215,'1 ',   145.784,     3.332,    86.020,   -49.067,1.04000,111207,   202.800,   0.00000,   0.12330,   0.00000,   0.00000,1.00000,1,  100.0,   169.000,    29.810,   1,1.0000,   0,1.0000,   0,1.0000,   0,1.0000,0, 1.0000
111217,'1 ',  1104.160,    65.299,   471.040,  -365.470,1.03900,111216,  1536.000,   0.00000,   0.33020,   0.00000,   0.00000,1.00000,1,  100.0,  1280.000,   201.177,   1,1.0000,   0,1.0000,   0,1.0000,   0,1.0000,0, 1.0000
111218,'1 ',  1104.160,    65.299,   471.040,  -382.864,1.03900,111216,  1536.000,   0.00000,   0.20700,   0.00000,   0.00000,1.00000,1,  100.0,  1280.000,   178.289,   1,1.0000,   0,1.0000,   0,1.0000,   0,1.0000,0, 1.0000
111220,'1 ',    60.566,    13.102,    41.230,   -21.319,1.04000,    0,    97.200,   0.00000,   0.17340,   0.00000,   0.00000,1.00000,1,  100.0,    81.000,    34.890,   1,1.0000,   0,1.0000,   0,1.0000,   0,1.0000,0, 1.0000
111221,'1 ',    69.873,    14.042,    41.230,   -21.949,1.04000,    0,    97.200,   0.00000,   0.30660,   0.00000,   0.00000,1.00000,1,  100.0,    81.000,    13.800,   1,1.0000,   0,1.0000,   0,1.0000,   0,1.0000,0, 1.0000
111223,'1 ',     0.000,     0.000,    15.270,   -10.323,1.04000,    0,    36.000,   0.00000,   0.11420,   0.00000,   0.00000,1.00000,0,  100.0,    30.000,     3.970,   1,1.0000,   0,1.0000,   0,1.0000,   0,1.0000,0, 1.0000
111231,'1 ',    64.697,    20.261,    38.170,   -25.114,1.04000,    0,    90.000,   0.00000,   0.11630,   0.00000,   0.00000,1.00000,1,  100.0,    75.000,    20.030,   1,1.0000,   0,1.0000,   0,1.0000,   0,1.0000,0, 1.0000
111232,'1 ',    31.274,    19.910,    38.170,   -25.036,1.04000,    0,    90.000,   0.00000,   0.15100,   0.00000,   0.00000,1.00000,1,  100.0,    75.000,     7.500,   1,1.0000,   0,1.0000,   0,1.0000,   0,1.0000,0, 1.0000
111233,'1 ',    64.697,    13.213,    38.170,   -22.403,1.04000,    0,    90.000,   0.00000,   0.13780,   0.00000,   0.00000,1.00000,1,  100.0,    75.000,    27.460,   1,1.0000,   0,1.0000,   0,1.0000,   0,1.0000,0, 1.0000
111234,'1 ',    43.084,    18.527,    38.170,   -20.496,1.04000,    0,    90.000,   0.00000,   0.22730,   0.00000,   0.00000,1.00000,1,  100.0,    75.000,    19.310,   1,1.0000,   0,1.0000,   0,1.0000,   0,1.0000,0, 1.0000
111237,'1 ',    30.862,    19.299,    21.630,   -10.778,1.04000,    0,    51.000,   0.00000,   0.16690,   0.00000,   0.00000,1.00000,1,  100.0,    42.500,    17.390,   1,1.0000,   0,1.0000,   0,1.0000,   0,1.0000,0, 1.0000
111241,'2 ',     0.000,     0.000,    14.250,    -8.077,1.04000,    0,    33.600,   0.00000,   0.33330,   0.00000,   0.00000,1.00000,0,  100.0,    28.000,    13.430,   1,1.0000,   0,1.0000,   0,1.0000,   0,1.0000,0, 1.0000
111242,'1 ',     0.000,     0.000,    14.250,    -9.251,1.04000,    0,    33.600,   0.00000,   0.11510,   0.00000,   0.00000,1.00000,0,  100.0,    28.000,    12.120,   1,1.0000,   0,1.0000,   0,1.0000,   0,1.0000,0, 1.0000
111242,'2 ',     0.000,     0.000,     9.160,    -5.818,1.04000,    0,    21.600,   0.00000,   0.20570,   0.00000,   0.00000,1.00000,0,  100.0,    18.000,     5.590,   1,1.0000,   0,1.0000,   0,1.0000,   0,1.0000,0, 1.0000
...